*#######################################################################
*#	Change Log:
*#      10 Jun 09 (1V) - Added initial version of HSPICE models.
*#      01 Mar 10 (2V) - Added updated version of HSPICE models.
*#
*#
*#/**************************************************************************/
*#/*  Copyright (c), 2009-2010 Synopsys, Inc.  All rights reserved.         */
*#/*  This Techfile and the associated documentation are confidential       */
*#/*  and proprietary to Synopsys, Inc.                                     */
*#/*------------------------------------------------------------------------*/
*#/*  DISCLAIMER                                                            */
*#/*  The information contained herein is provided by Synopsys, Inc. on     */
*#/*  an "AS IS" basis without any warranty, and Synopsys has no obligation */
*#/*  to support or otherwise maintain the information.                     */
*#/*                                                                        */
*#/*  Synopsys, Inc. disclaims any representation that the information      */
*#/*  does not infringe any intellectual property rights or proprietary     */
*#/*  rights of any third parties.  There are no other warranties given by  */
*#/*  Synopsys, whether express, implied or statutory, including, without   */
*#/*  limitation, implied warranties of merchantability and fitness for a   */
*#/*  particular purpose.                                                   */
*#/*                                                                        */
*#/*  Synopsys, Inc. reserves the right to make changes to the information  */
*#/*  at any time and without notice.                                       */
*#/**************************************************************************/


******* This model is partly based on the default HSPICE models.
******* The N and P models are "generic" 90N models that do not
******* comply with any specific foundry models.
******* This is not at all made to be used for real design to be
******* manufactured.

******* The purpose of this file is to help testing the CustomDesigner tool
******* with the Referene PDK 

******* This file should be included in the spice netlist used for simulation.
******* To help a proper netlisting, users can use the symbol 'include'
******* from the common library and modify the file field.


**********************  Mosfets    ****************************
* HSPICE Level 54 is BSIM 4
.model NA   NMOS level=54
.model NA25 NMOS level=54
.model N18  NMOS level=54
.model NA18 NMOS level=54
.model N33  NMOS level=54
.model NA33 NMOS level=54
.model NL   NMOS level=54
.model NH   NMOS level=54
.model NM   NMOS level=54
.model NM25 NMOS level=54

.model P18 PMOS level=54
.model P33 PMOS level=54
.model PL  PMOS level=54
.model PH  PMOS level=54
.model PM  PMOS level=54

.subckt NDN d g s b sub n l=1u w=1u m=1 area=4
m1 d g s b N L='l' W='w'
q1 sub n b DNWPNP AREA='area'
.ends NDN

.subckt NDN25 d g s b sub n l=1u w=1u m=1 area=4
m1 d g s b N25 L='l' W='w'
q1 sub n b DNWPNP AREA='area'
.ends NDN25

**********************  Capacitors ****************************
* MIM capacitor (2-Terminal)
.subckt cmim_2t n1 n2 l=4u w=4u
C1 n1 n2 C='1.025e-15*1e12*(l*w) + 0.2425e-15*1e6*2*(l+w)'
.ends cmim_2t

* MIM capacitor (3-Terminal)
.subckt cmim_3t n1 n2 n3 l=4u w=4u
C1 n1 n2 C='1.025e-15*1e12*(l*w) + 0.2425e-15*1e6*2*(l+w)'
C2 n1 n3 C='0.012f'
C3 n2 n3 C='0.012f'
.ends cmim_3t

* Metal on metal Fringe capacitor
.subckt cmom n1 n2 n3 width=0.4u spacing=0.4u NV=6 NH=6 startmetal=1 endmetal=3
C1 n1 n2 C='1.025e-15*1e12*NV*NH/2*width + 0.2425e-15*1e6*2*NH*NV*width'
C2 n1 n3 C='0.012f'
C3 n2 n3 C='0.012f'
.ends cmom



**********************  Varactors ****************************
.subckt NVAR1 p m c=875a lr=0.3u wr=0.5u
Cvar1 p m C='2.1e-03*lr*wr+2*2.5e-10*lr+2*4.1e-10*wr'
.ends

.subckt PVAR1 p m c=875a lr=0.3u wr=0.5u
Cvar1 p m C='2.1e-03*lr*wr+2*2.5e-10*lr+2*4.1e-10*wr'
.ends

.subckt NVAR2 p m c=2.387f lr=0.5u wr=1.5u
Cvar1 p m C='1.25e-03*lr*wr+2*2.5e-10*lr+2*4e-10*wr'
.ends

.subckt PVAR2 p m c=2.350f lr=0.5u wr=1.5u
Cvar1 p m C='1.2e-03*lr*wr+2*2.5e-10*lr+2*4e-10*wr'
.ends

.subckt MOSVAR_1V2 n1 n2 n3 l=0.3u w = 0.5u fingers = 1 Mcell = 1
Cvar1 p m C='1.508e-12 + 1.020e-12 * (l-120e-3) * (w-187e-3) *fingers'
.ends

* P+/NW Junction Diode Varactor (SMIC Style)
.subckt VARDIO p m lr=5u wr=10u nr=1
Ls    p 1 L='(0.07947+(1.7134E-05*lr*wr*nr*1E12)-(3.865E-09*lr*wr*nr*lr*wr*nr*1E24))*1E-9'
Rs    1 2 R='0.23268+(3.334E+03/(lr*wr*nr*1E12))+(8.9147E+04/(lr*wr*nr*lr*wr*nr*1E24))'
Diode 2 m PN area='lr*wr*nr'
.ends

* P+/NW Junction Diode Varactor (TSMC Style)
.subckt XJVAR p m bulk wr=20u nr=5
L1 p 1 '(-0.2128*(wr*1e+6)+69.387)*1e-12'
R1 1 2 '-60u*(wr*1e+6)*(wr*1e+6)+0.0047*(wr*1e+6)+0.4949'
D1 2 3 PN area='nr*0.19u*wr' pj='2*nr*(0.19u+wr)'
L2 3 4 '(-0.2128*(wr*1e+6)+69.387)*1e-12'
D2 bulk 3 NWDIO area='(1.42u*nr+1.42u)*(wr+1u)' pj='2*(1.42u*nr+wr+1.42u)'
R2 4 m '-60u*(wr*1e+6)*(wr*1e+6)+0.0047*(wr*1e+6)+0.4949'
.ends XJVAR


**********************  Inductors ****************************

* 3 Terminal inductors
.subckt INDSYM p m b w=20u N=1 R=40u
l1 p b '(N*((2*R*1e6+(2*(R*1e6)+(int(N+0.5)*(w*1e6+3)-3)+((int(N)+1)*(w*1e6+3)-3)))/2)*(2*(R*1e6)+(int(N+0.5)*(w*1e6+3)-3)+((int(N)+1)*(w*1e6+3)-3))+N)*1.0e-9'
l2 b m '(N*((2*R*1e6+(2*(R*1e6)+(int(N+0.5)*(w*1e6+3)-3)+((int(N)+1)*(w*1e6+3)-3)))/2)*(2*(R*1e6)+(int(N+0.5)*(w*1e6+3)-3)+((int(N)+1)*(w*1e6+3)-3))+N)*1.0e-9'
.ends

.subckt SYNSTD p m b w=20u N=1 R=40u
l1 p b '(N*((2*R*1e6+(2*(R*1e6)+(int(N+0.5)*(w*1e6+3)-3)+((int(N)+1)*(w*1e6+3)-3)))/2)*(2*(R*1e6)+(int(N+0.5)*(w*1e6+3)-3)+((int(N)+1)*(w*1e6+3)-3))+N)*1.0e-9'
l2 b m '(N*((2*R*1e6+(2*(R*1e6)+(int(N+0.5)*(w*1e6+3)-3)+((int(N)+1)*(w*1e6+3)-3)))/2)*(2*(R*1e6)+(int(N+0.5)*(w*1e6+3)-3)+((int(N)+1)*(w*1e6+3)-3))+N)*1.0e-9'
.ends

* 4 Terminal inductors
.subckt INDSYMCT p m c b w=20u N=1 R=40u
l1 p b '(N*((2*R*1e6+(2*(R*1e6)+(int(N+0.5)*(w*1e6+3)-3)+((int(N)+1)*(w*1e6+3)-3)))/2)*(2*(R*1e6)+(int(N+0.5)*(w*1e6+3)-3)+((int(N)+1)*(w*1e6+3)-3))+N)*1.0e-9'
l2 b m '(N*((2*R*1e6+(2*(R*1e6)+(int(N+0.5)*(w*1e6+3)-3)+((int(N)+1)*(w*1e6+3)-3)))/2)*(2*(R*1e6)+(int(N+0.5)*(w*1e6+3)-3)+((int(N)+1)*(w*1e6+3)-3))+N)*1.0e-9'
lc b c '(N*N+N)*1e-9'
.ends


**********************  Diodes     ****************************

.model NP D
.model NP_LVT D
.model NP_HVT D
.model NP_NA D
.model PN D
.model PN_LVT D
.model PN_HVT D
.model NWDIO D
.model NP18V D
.model NP_NA18V D
.model PN18V D
.model NWDIO18V D
.model NP25V D
.model NP_NA25V D
.model PN25V D
.model NWDIO25V D
.model NP33V D
.model NP_NA33V D
.model PN33V D
.model NWDIO33V D

.subckt DNWDIODE p m bulk l=2.6u w=2u m=1
D1 p m PN
D2 m bulk NWDIO
.ends DNWDIODE

**********************  Resistors  ****************************  
*** 2 Terminal Resistors
.subckt rnpoly n1 n2 l=2u w=2u
r1 n1 n2 R='(402.1*(l-0.04u)/(w-0.02u)*1) + 2*2.0u/(w-0.02u)'
.ends rnpoly

.subckt rppoly n1 n2 l=2u w=2u
r1 n1 n2 R='(390*(l-0.04u)/(w-0.03u)*1) + 2*3.0u/(w-0.03u)'
.ends rppoly

.subckt rndiff n1 n2 l=2u w=2u
r1 n1 n2 R='(25*(l-0.01u)/(w-0.05u)*1) + 2*2.5u/(w-0.05u)'
.ends rndiff

.subckt rpdiff n1 n2 l=2u w=2u
r1 n1 n2 R='(40*(l-0.01u)/(w-0.04u)*1) + 2*3.5u/(w-0.04u)'
.ends rpdiff

.subckt hrnpoly n1 n2 l=2u w=2u
r1 n1 n2 R='(700*(l-0.06u)/(w-0.09u)*1) + 2*6.0u/(w-0.09u)'
.ends hrnpoly

.subckt hrppoly n1 n2 l=2u w=2u
r1 n1 n2 R='(800*(l-0.066u)/(w-0.09u)*1) + 2*7.0u/(w-0.09u)'
.ends hrppoly

.subckt rnwell n1 n2 l=2u w=2u
r1 n1 n2 R='(330*(l-0.0u)/(w-0.2u)*1) + 2*0.0u/(w-0.2u)'
.ends rnwell

.subckt rnpolyS n1 n2 l=2u w=2u
r1 n1 n2 R='(20*(l-0.0u)/(w+0.02u)*1) + 2*0.0u/(w+0.02u)'
.ends rnpolyS

.subckt rppolyS n1 n2 l=2u w=2u
r1 n1 n2 R='(15*(l-0.0u)/(w+0.03u)*1) + 2*0.0u/(w+0.03u)'
.ends rppolyS

.subckt rndiffS n1 n2 l=2u w=2u
r1 n1 n2 R='(10.5*(l-0.0u)/(w+0.01u)*1) + 2*0.0u/(w+0.01u)'
.ends rndiffS

.subckt rpdiffS n1 n2 l=2u w=2u
r1 n1 n2 R='(30*(l-dl)/(w+0.03u)*1) + 2*0.0u/(w+0.03u)'
.ends rpdiffS

.subckt rnwdiff n1 n2 l=2u w=2u
r1 n1 n2 R='(550*(l-0.0u)/(w-0.3u)*1) + 2*0.0u/(w-0.3u)'
.ends rnwdiff

.subckt rm1 n1 n2 l=2u w=2u
r1 n1 n2 R='(0.115*(l-0.0u)/(w-0.023u)*1) + 2*0.0u/(w-0.023u)'
.ends rm1

.subckt rm2 n1 n2 l=2u w=2u
r1 n1 n2 R='(0.086*(l-0.0u)/(w-0.006u)*1) + 2*0.0u/(w-0.006u)'
.ends rm2

.subckt rm3 n1 n2 l=2u w=2u
r1 n1 n2 R='(0.086*(l-0.0u)/(w-0.015u)*1) + 2*0.0u/(w-0.015u)'
.ends rm3

.subckt rm4 n1 n2 l=2u w=2u
r1 n1 n2 R='(0.04*(l-0.0u)/(w-0.009u)*1) + 2*0.0u/(w-0.009u)'
.ends rm4

.subckt rm5 n1 n2 l=2u w=2u
r1 n1 n2 R='(0.04*(l-0.0u)/(w-0.009u)*1) + 2*0.0u/(w-0.009u)'
.ends rm5

.subckt rm6 n1 n2 l=2u w=2u
r1 n1 n2 R='(0.04*(l-0.0u)/(w-0.009u)*1) + 2*0.0u/(w-0.009u)'
.ends rm6


.subckt rm7 n1 n2 l=2u w=2u
r1 n1 n2 R='(0.04*(l-0.0u)/(w-0.009u)*1) + 2*0.0u/(w-0.009u)'
.ends rm7

.subckt rm8 n1 n2 l=2u w=2u
r1 n1 n2 R='(0.04*(l-0.0u)/(w-0.009u)*1) + 2*0.0u/(w-0.009u)'
.ends rm8

.subckt rmt n1 n2 l=2u w=2u
r1 n1 n2 R='(0.04*(l-0.0u)/(w-0.009u)*1) + 2*0.0u/(w-0.009u)'
.ends rmt

*** 3 Terminal Resistors
.subckt rndiff_3t n1 n2 sub l=2u w=2u
r1 n1 n2 R='(25*(l-0.01u)/(w-0.05u)*1) + 2*2.5u/(w-0.05u)'
.ends rndiff_3t

.subckt rpdiff_3t n1 n2 sub l=2u w=2u
r1 n1 n2 R='(40*(l-0.01u)/(w-0.04u)*1) + 2*3.5u/(w-0.04u)'
.ends rpdiff_3t

.subckt rndiffS_3t n1 n2 sub l=2u w=2u
r1 n1 n2 R='(10.5*(l-0.0u)/(w+0.01u)*1) + 2*0.0u/(w+0.01u)'
.ends rndiffS_3t

.subckt rpdiffS_3t n1 n2 sub l=2u w=2u
r1 n1 n2 R='(30*(l-0.0u)/(w+0.03u)*1) + 2*0.0u/(w+0.03u)'
.ends rpdiffS_3t

.subckt rnwdiff_3t n1 n2 sub l=2u w=2u
r1 n1 n2 R='(550*(l-0.0u)/(w-0.3u)*1) + 2*0.0u/(w-0.3u)'
.ends rnwdiff_3t

.subckt rnwell_3t n1 n2 sub l=2u w=2u
r1 n1 n2 R='(330*(l-0.0u)/(w-0.2u)*1) + 2*0.0/(w-0.2u)'
.ends rnwell_3t

.subckt rnpoly_3t n1 n2 sub l=2u w=2u
r1 n1 n2 '(402.1*(l-0.04u)/(w-0.02u)*1) + 2*2.0u/(w-0.02u)'
.ends rnpoly_3t

.subckt rppoly_3t n1 n2 sub l=2u w=2u
r1 n1 n2 '(390*(l-0.04u)/(w-0.03u)*1) + 2*3.0u/(w-0.03u)'
.ends rppoly_3t

.subckt hrnpoly_3t n1 n2 sub l=2u w=2u
r1 n1 n2 R='(800*(l-0.066u)/(w-0.09u)*1) + 2*7.0u/(w-0.09u)'
.ends hrnpoly_3t

.subckt hrppoly_3t n1 n2 sub l=2u w=2u
r1 n1 n2 R='(800*(l-0.066u)/(w-0.09u)*1) + 2*7.0u/(w-0.09u)'
.ends hrppoly_3t

.subckt rnpolyS_3t n1 n2 sub l=2u w=2u
r1 n1 n2 R='(20*(l-0.0u)/(w+0.02u)*1) + 2*0.0/(w+0.02u)'
.ends rnpolyS_3t

.subckt rppolyS_3t n1 n2 sub l=2u w=2u
r1 n1 n2 R='(15*(l-0.0u)/(w+0.03u)*1) + 2*0.0/(w+0.03u)'
.ends rppolyS_3t

*** Serpentine resistors (2-Term & 3-Term)
.subckt rpoly n1 n2 l=2u w=2u
r1 n1 n2 R='(50.0*(l-0.0u)/(w-0.247u)*1) + 2*2u/(w-0.247u)'
.ends rpoly

.subckt rpolyrf n1 n2 l=2u w=2u
r1 n1 n2 R='(50*(l-0.0u)/(w-0.247u)*1) + 2*3u/(w-0.247u)'
.ends rpolyrf

.subckt rpolyh n1 n2 l=2u w=2u
r1 n1 n2 R='(1200*(l-0.0u)/(w-0.2u)*1) + 2*3.5u/(w-0.2u)'
.ends rpolyh

.subckt rpolyhrf n1 n2 l=2u w=2u
r1 n1 n2 R='(1200*(l-0.0u)/(w-0.2u)*1) + 2*7u/(w-0.2u)'
.ends rpolyhrf

.subckt rpolyc n1 n2 sub l=2u w=2u
r1 n1 n2 R='(50*(l-0.0u)/(w-0.247u)*1) + 2*2.5u/(w-0.247u)'
.ends rpolyc

.subckt rpolyhc n1 n2 sub l=2u w=2u
r1 n1 n2 R='(1200*(l-0.0u)/(w-0.2u)*1) + 2*6u/(w-0.2u)'
.ends rpolyhc

**************************************************************************  
* Generic 90nm HSPICE model
.model N nmos
 + binunit = 2
 + diomod = 1
 + igbmod = 1
 + igcmod = 1
 + level = 54
 + mobmod = 0
 + paramchk = 1
 + permod = 1
 + rdsmod = 0
 + stimod = 1
 + version = 4.2
 + acnqsmod = 0
 + capmod = 2
 + trnqsmod = 0
 + xpart = 1
 + fnoimod = 1
 + tnoimod = 0
 + dmcg = 9.250000E-08
 + dmcgt = 0.000000E+00
 + dmci = 9.250000E-08
 + dmdg = 0.000000E+00
 + dtox = 3.000000E-10
 + dwj = 0.000000E+00
 + epsrox = 3.900000E+00
 + ndep = 8.368704E+17
 + ngate = 4.000000E+20
 + ngcon = 1.000000E+00
 + nsd = 1.000000E+20
 + rsh = 1.050000E+01
 + rshg = 1.000000E-01
 + toxe = 2.330000E-09
 + toxm = 2.330000E-09
 + xgl = 0.000000E+00
 + xgw = 0.000000E+00
 + xj = 1.500000E-07
 + xl = -3.500000E-08
 + xw = 1.500000E-08
 + dwb = -8.394822E-08
 + dwg = -5.050960E-08
 + lint = -1.286824E-07
 + ll = 0.000000E+00
 + lln = 1.000000E+00
 + lw = 0.000000E+00
 + lwl = 0.000000E+00
 + lwn = 1.000000E+00
 + wint = -1.227012E-08
 + wl = 0.000000E+00
 + wln = 1.000000E+00
 + ww = 0.000000E+00
 + wwl = 0.000000E+00
 + wwn = 1.000000E+00
 + dlc = 1.172000E-08
 + dwc = 0.000000E+00
 + llc = 0.000000E+00
 + lwc = 0.000000E+00
 + lwlc = 0.000000E+00
 + wlc = 0.000000E+00
 + wwc = 0.000000E+00
 + wwlc = 0.000000E+00
 + a0 = 2.167293E+00
 + a1 = -5.165720E-01
 + a2 = 9.522582E-01
 + agidl = 9.000000E-08
 + ags = 8.235340E-01
 + aigbacc = 1.134000E-02
 + aigbinv = 3.500000E-01
 + aigc = 1.030000E-02
 + aigsd = 8.450001E-03
 + alpha0 = 0.000000E+00
 + alpha1 = 3.000000E-02
 + b0 = -6.833481E-08
 + b1 = -1.217797E-07
 + beta0 = 8.700000E+00
 + bgidl = 2.300000E+09
 + bigbacc = 3.249000E-03
 + bigbinv = 3.000000E-02
 + bigc = 1.525000E-03
 + bigsd = 4.021000E-04
 + cdsc = 0.000000E+00
 + cdscb = 0.000000E+00
 + cdscd = 0.000000E+00
 + cgidl = 5.000000E-01
 + cigbacc = 1.416000E-01
 + cigbinv = 6.000000E-03
 + cigc = 0.000000E+00
 + cigsd = 1.463000E-03
 + cit = 0.000000E+00
 + delta = 7.500000E-03
 + dlcig = 2.500000E-09
 + drout = 0.000000E+00
 + dsub = 4.884663E-01
 + dvt0 = 1.390000E+01
 + dvt0w = -9.995669E+01
 + dvt1 = 5.692497E+00
 + dvt1w = 4.864340E+06
 + dvt2 = -1.143293E-12
 + dvt2w = -7.825645E-02
 + dvtp0 = 4.000000E-07
 + dvtp1 = 2.000000E+00
 + egidl = 5.300000E-01
 + eigbinv = 1.100000E+00
 + eta0 = 6.345119E+04
 + etab = 3.347932E+04
 + fprout = 2.000000E+02
 + gbmin = 1.000000E-12
 + k1 = 3.189260E-01
 + k2 = 9.446747E-03
 + k3 = -2.212346E+00
 + k3b = 3.539666E-01
 + keta = -3.675031E-02
 + ku0 = -7.360000E-08
 + kvsat = 2.000000E-01
 + kvth0 = 3.500000E-09
 + lku0 = 4.027000E-07
 + lkvth0 = -2.680000E-11
 + llodku0 = 1.000000E+00
 + llodvth = 1.000000E+00
 + lodeta0 = 1.000000E+00
 + lodk2 = 5.000000E-01
 + lpe0 = 1.222034E-07
 + lpeb = 0.000000E+00
 + minv = 5.449842E-02
 + nfactor = 3.234669E-01
 + nigbacc = 4.050000E+00
 + nigbinv = 1.000000E+00
 + nigc = 1.000000E+00
 + ntox = 1.000000E+00
 + pclm = 8.926522E-01
 + pdiblc1 = 0.000000E+00
 + pdiblc2 = 1.763155E-04
 + pdiblcb = 0.000000E+00
 + pdits = 0.000000E+00
 + pditsd = 0.000000E+00
 + pditsl = 0.000000E+00
 + phin = 0.000000E+00
 + pigcd = 2.300000E+00
 + pku0 = -2.000000E-13
 + pkvth0 = 0.000000E+00
 + poxedge = 1.000000E+00
 + prwb = 0.000000E+00
 + prwg = 0.000000E+00
 + pscbe1 = 9.264000E+08
 + pscbe2 = 1.000000E-20
 + pvag = -5.627113E-02
 + rbdb = 5.000000E+01
 + rbpb = 5.000000E+01
 + rbpd = 5.000000E+01
 + rbps = 5.000000E+01
 + rbsb = 5.000000E+01
 + rdsw = 1.000000E+02
 + rdswmin = 0.000000E+00
 + sa0 = 6.300000E-07
 + sb0 = 6.300000E-07
 + steta0 = 0.000000E+00
 + stk2 = 1.350000E-09
 + toxref = 3.000000E-09
 + u0 = 4.031486E-02
 + ua = -4.841608E-10
 + ub = 2.000000E-18
 + uc = 2.214696E-10
 + voff = -1.061007E-01
 + voffl = 0.000000E+00
 + vsat = 9.706428E+04
 + vth0 = 2.273138E-01
 + w0 = 0.000000E+00
 + wku0 = 8.000000E-07
 + wkvth0 = 1.500000E-06
 + wlod = 8.000000E-07
 + wlodku0 = 1.000000E+00
 + wlodvth = 1.000000E+00
 + wr = 1.000000E+00
 + acde = 1.200000E+00
 + cf = 1.380000E-10
 + cgbo = 0.000000E+00
 + cgdl = 6.514300E-11
 + cgdo = 1.209000E-10
 + cgsl = 6.514300E-11
 + cgso = 1.209000E-10
 + ckappas = 6.000000E-01
 + clc = 1.000000E-07
 + cle = 6.000000E-01
 + moin = 1.260000E+01
 + noff = 1.686000E+00
 + voffcv = -5.472000E-02
 + xrcrg1 = 1.200000E+01
 + xrcrg2 = 1.000000E+00
 + ef = 8.841001E-01
 + em = 1.192000E+07
 + noia = 4.292600E+24
 + noib = 1.612000E+24
 + noic = 8.750000E+00
 + bvs = 1.000000E+01
 + ijthsfwd = 1.000000E-02
 + ijthsrev = 1.000000E-02
 + jss = 1.770000E-07
 + jsws = 4.230000E-13
 + njs = 1.000000E+00
 + xjbvs = 1.000000E+00
 + cjs = 9.800000E-04
 + cjswgs = 3.700000E-10
 + cjsws = 4.000000E-11
 + mjs = 2.500000E-01
 + mjswgs = 5.200000E-01
 + mjsws = 1.000000E-02
 + pbs = 5.000000E-01
 + pbswgs = 7.800000E-01
 + pbsws = 8.000000E-01
 + tnom = 2.500000E+01
 + at = 4.500000E+04
 + kt1 = -2.081000E-01
 + kt1l = 0.000000E+00
 + kt2 = -4.464000E-02
 + prt = 0.000000E+00
 + tku0 = 1.000000E-02
 + ua1 = 2.684000E-09
 + ub1 = -3.673000E-18
 + uc1 = -6.421000E-11
 + ute = -1.730000E+00
 + xtis = 3.000000E+00
 + tcj = 7.320000E-04
 + tcjsw = 3.570000E-04
 + tcjswg = 3.570000E-04
 + tpb = 1.000000E-03
 + tpbsw = 1.900000E-03
 + tpbswg = 1.900000E-03
 + la1 = 5.818922E-08
 + leta0 = -1.995037E-02
 + letab = -1.088300E-02
 + lk1 = 7.947673E-08
 + lk2 = -3.398233E-08
 + lketa = 3.404384E-08
 + lnfactor = 1.062417E-06
 + lprwb = -7.550828E-07
 + lprwg = 2.732183E-06
 + lu0 = 5.869808E-09
 + lua = -6.009662E-16
 + luc = -8.463302E-17
 + lvth0 = -2.234747E-08
 + pk1 = 1.389370E-15
 + pk2 = -9.999988E-16
 + pketa = 1.896025E-15
 + pnfactor = 3.445588E-14
 + pprwb = -2.571685E-12
 + pprwg = 8.224258E-12
 + prdsw = 3.811928E-10
 + pu0 = 2.289016E-15
 + pua = -6.550056E-24
 + pub = 1.778942E-31
 + puc = -2.957901E-34
 + pvoff = 1.447229E-15
 + pvsat = -2.972676E-09
 + pvth0 = -4.111549E-15
 + pwr = -1.046399E-12
 + wketa = -1.404696E-08
 + wprwb = 1.014316E-05
 + wu0 = -1.952950E-09
 + wua = 4.058177E-16
 + wuc = -4.982743E-17
 + wvth0 = 2.467784E-09

.model P pmos
 + binunit = 2
 + diomod = 1
 + igbmod = 1
 + igcmod = 1
 + level = 54
 + mobmod = 0
 + paramchk = 1
 + permod = 1
 + rdsmod = 0
 + stimod = 1
 + version = 4.2
 + acnqsmod = 0
 + capmod = 2
 + trnqsmod = 0
 + xpart = 1
 + fnoimod = 1
 + tnoimod = 0
 + dmcg = 9.250000E-08
 + dmcgt = 0.000000E+00
 + dmci = 9.250000E-08
 + dmdg = 0.000000E+00
 + dtox = 5.250000E-10
 + dwj = 0.000000E+00
 + epsrox = 3.900000E+00
 + ndep = 1.720000E+17
 + ngate = 8.000000E+19
 + ngcon = 1.000000E+00
 + nsd = 1.000000E+20
 + rsh = 9.680000E+00
 + rshg = 1.000000E-01
 + toxe = 2.500000E-09
 + toxm = 2.500000E-09
 + xgl = 0.000000E+00
 + xgw = 0.000000E+00
 + xj = 1.700000E-07
 + xl = -3.500000E-08
 + xw = 1.500000E-08
 + dwb = -6.223809E-08
 + dwg = -8.022543E-08
 + lint = -9.027571E-08
 + ll = 0.000000E+00
 + lln = 1.000000E+00
 + lw = 0.000000E+00
 + lwl = 0.000000E+00
 + lwn = 1.000000E+00
 + wint = 1.332672E-10
 + wl = 0.000000E+00
 + wln = 1.000000E+00
 + ww = 0.000000E+00
 + wwl = 0.000000E+00
 + wwn = 1.000000E+00
 + dlc = 1.525000E-08
 + dwc = 0.000000E+00
 + llc = 0.000000E+00
 + lwc = 0.000000E+00
 + lwlc = 0.000000E+00
 + wlc = 0.000000E+00
 + wwc = 0.000000E+00
 + wwlc = 0.000000E+00
 + a0 = 5.506488E+00
 + a1 = -1.139356E-07
 + a2 = 1.000000E+00
 + agidl = 9.000000E-08
 + ags = 1.218103E+00
 + aigbacc = 1.069000E-02
 + aigbinv = 3.500000E-01
 + aigc = 6.060000E-03
 + aigsd = 4.590000E-03
 + alpha0 = 0.000000E+00
 + alpha1 = 6.000000E-02
 + b0 = -5.549142E-42
 + b1 = 0.000000E+00
 + beta0 = 1.200000E+01
 + bgidl = 2.300000E+09
 + bigbacc = 3.132000E-03
 + bigbinv = 3.000000E-02
 + bigc = 7.625000E-04
 + bigsd = 0.000000E+00
 + cdsc = 9.999992E-13
 + cdscb = 0.000000E+00
 + cdscd = 0.000000E+00
 + cgidl = 5.000000E-01
 + cigbacc = 1.498000E-01
 + cigbinv = 6.000000E-03
 + cigc = 1.000000E-10
 + cigsd = 2.267000E-03
 + cit = -1.318182E-04
 + delta = 2.000000E-02
 + dlcig = 2.500000E-09
 + drout = 5.000000E-02
 + dsub = 1.633560E-01
 + dvt0 = 1.238586E-01
 + dvt0w = 0.000000E+00
 + dvt1 = 1.220875E-01
 + dvt1w = 0.000000E+00
 + dvt2 = -5.357869E-01
 + dvt2w = 0.000000E+00
 + dvtp0 = 0.000000E+00
 + dvtp1 = 0.000000E+00
 + egidl = 5.300000E-01
 + eigbinv = 1.100000E+00
 + eta0 = 8.500000E-02
 + etab = -6.582818E-10
 + fprout = 1.000000E+03
 + gbmin = 1.000000E-12
 + k1 = 1.623000E-01
 + k2 = 1.057773E-02
 + k3 = -1.225666E+01
 + k3b = 1.146047E+00
 + keta = -2.973716E-02
 + pketa = 0
 + wketa = 0
 + ku0 = 1.324900E-07
 + kvsat = -9.000000E-01
 + kvth0 = -1.500000E-09
 + lku0 = 1.330000E-07
 + lkvth0 = -1.680000E-15
 + llodku0 = 1.000000E+00
 + llodvth = 2.000000E+00
 + lodeta0 = 1.000000E+00
 + lodk2 = 2.000000E+00
 + lpe0 = 5.966146E-07
 + lpeb = 1.000000E-07
 + minv = 0.000000E+00
 + nfactor = 5.000000E-01
 + nigbacc = 4.049000E+00
 + nigbinv = 1.000000E+00
 + nigc = 1.000000E+00
 + ntox = 1.000000E+00
 + pclm = 9.454546E-02
 + pdiblc1 = 0.000000E+00
 + pdiblc2 = 5.000000E-03
 + pdiblcb = 0.000000E+00
 + pdits = 0.000000E+00
 + pditsd = 0.000000E+00
 + pditsl = 0.000000E+00
 + phin = 0.000000E+00
 + pigcd = 2.300000E+00
 + pku0 = 0.000000E+00
 + pkvth0 = 0.000000E+00
 + poxedge = 1.000000E+00
 + prwb = 1.896447E-16
 + prwg = 0.000000E+00
 + pscbe1 = 9.264000E+08
 + pscbe2 = 1.000000E-20
 + pvag = 0.000000E+00
 + rbdb = 5.000000E+01
 + rbpb = 5.000000E+01
 + rbpd = 5.000000E+01
 + rbps = 5.000000E+01
 + rbsb = 5.000000E+01
 + rdsw = 1.600000E+02
 + rdswmin = 0.000000E+00
 + sa0 = 6.300000E-07
 + sb0 = 6.300000E-07
 + steta0 = 0.000000E+00
 + stk2 = 4.000000E-10
 + toxref = 3.000000E-09
 + u0 = 8.391744E-03
 + ua = -2.764000E-10
 + ub = 2.013546E-18
 + uc = 8.649269E-11
 + voff = -9.684423E-02
 + voffl = 0.000000E+00
 + vsat = 3.770152E+04
 + vth0 = -1.646991E-01
 + w0 = 4.976124E-09
 + wku0 = 6.500000E-07
 + wkvth0 = 5.000000E-07
 + wlod = 8.000000E-07
 + wlodku0 = 1.000000E+00
 + wlodvth = 1.000000E+00
 + wr = 4.853197E+00
 + acde = 1.200000E+00
 + cf = 1.690000E-10
 + cgbo = 0.000000E+00
 + cgdl = 1.895700E-10
 + cgdo = 2.568000E-11
 + cgsl = 1.895700E-10
 + cgso = 2.568000E-11
 + ckappas = 6.000000E-01
 + clc = 1.000000E-07
 + cle = 6.000000E-01
 + moin = 1.109000E+01
 + noff = 2.175000E+00
 + voffcv = -3.885000E-02
 + xrcrg1 = 1.200000E+01
 + xrcrg2 = 1.000000E+00
 + ef = 1.190000E+00
 + em = 1.500000E+08
 + noia = 1.635000E+24
 + noib = 7.241000E+26
 + noic = 8.750000E+00
 + bvs = 1.000000E+01
 + ijthsfwd = 1.000000E-02
 + ijthsrev = 1.000000E-02
 + jss = 1.245000E-07
 + jsws = 3.770000E-13
 + njs = 1.000000E+00
 + xjbvs = 1.000000E+00
 + cjs = 1.140000E-03
 + cjswgs = 3.600000E-10
 + cjsws = 6.000000E-11
 + mjs = 3.600000E-01
 + mjswgs = 9.899999E-01
 + mjsws = 1.000000E-02
 + pbs = 8.000000E-01
 + pbswgs = 1.000000E+00
 + pbsws = 8.000000E-01
 + tnom = 2.500000E+01
 + at = 2.800000E+05
 + kt1 = -2.898000E-01
 + kt1l = 0.000000E+00
 + kt2 = -2.958000E-02
 + prt = 0.000000E+00
 + tku0 = 1.000000E-01
 + ua1 = 4.214773E-09
 + ub1 = -8.025218E-18
 + uc1 = -6.421000E-11
 + ute = -1.197546E+00
 + xtis = 3.000000E+00
 + tcj = 8.540000E-04
 + tcjsw = 3.570000E-04
 + tcjswg = 3.120000E-03
 + tpb = 1.900000E-03
 + tpbsw = 1.900000E-03
 + tpbswg = 1.900000E-03
 + lags = 8.468265E-07
 + lcit = 1.312909E-09
 + letab = -2.045012E-08
 + lk1 = -1.193940E-10
 + lk2 = 2.194164E-08
 + lketa = -6.589429E-08
 + lpclm = 1.050327E-06
 + lprwb = -9.342969E-07
 + lu0 = 1.696081E-09
 + lua = -2.620706E-16
 + lub = -1.050327E-25
 + luc = -6.270468E-17
 + lvoff = 1.347000E-08
 + lvth0 = 2.401928E-08
 + pk1 = -1.487280E-16
 + pk2 = 9.999856E-23
 + pnfactor = 2.732501E-13
 + pprwb = -1.549273E-31
 + pu0 = -3.644470E-16
 + pua = 2.557591E-23
 + pub = -1.330534E-31
 + puc = 1.673721E-23
 + pvoff = 5.228902E-15
 + pvsat = -9.545069E-10
 + pvth0 = 9.589335E-15
 + pwr = -6.866535E-13
 + wprwb = 4.937289E-06
 + wu0 = 1.145762E-09
 + wua = 1.042056E-15
 + wuc = -1.322054E-16
 + wvth0 = -2.316558E-08

.model N25 nmos
 + binunit = 2
 + diomod = 1
 + igbmod = 1
 + igcmod = 1
 + level = 54
 + mobmod = 0
 + paramchk = 1
 + permod = 1
 + rdsmod = 0
 + stimod = 1
 + version = 4.2
 + acnqsmod = 0
 + capmod = 2
 + trnqsmod = 0
 + xpart = 1
 + fnoimod = 1
 + tnoimod = 0
 + dmcg = 9.250000E-08
 + dmcgt = 0.000000E+00
 + dmci = 9.250000E-08
 + dmdg = 0.000000E+00
 + dtox = 3.000000E-10
 + dwj = 0.000000E+00
 + epsrox = 3.900000E+00
 + ndep = 8.368702E+17
 + ngate = 4.000000E+20
 + ngcon = 1.000000E+00
 + nsd = 1.000000E+20
 + rsh = 1.050000E+01
 + rshg = 1.000000E-01
 + toxe = 5.540000E-09
 + toxm = 5.540000E-09
 + xgl = 0.000000E+00
 + xgw = 0.000000E+00
 + xj = 1.500000E-07
 + xl = -3.500000E-08
 + xw = 1.500000E-08
 + dwb = -7.380508E-08
 + dwg = -2.758362E-08
 + lint = 3.237441E-09
 + ll = 0.000000E+00
 + lln = 1.000000E+00
 + lw = 0.000000E+00
 + lwl = 0.000000E+00
 + lwn = 1.000000E+00
 + wint = -6.938830E-08
 + wl = 0.000000E+00
 + wln = 1.000000E+00
 + ww = 0.000000E+00
 + wwl = 0.000000E+00
 + wwn = 1.000000E+00
 + dlc = 1.172000E-08
 + dwc = 0.000000E+00
 + llc = 0.000000E+00
 + lwc = 0.000000E+00
 + lwlc = 0.000000E+00
 + wlc = 0.000000E+00
 + wwc = 0.000000E+00
 + wwlc = 0.000000E+00
 + a0 = 1.708752E+00
 + a1 = 0.000000E+00
 + a2 = 6.654636E-01
 + agidl = 9.000000E-08
 + ags = 4.037642E-01
 + aigbacc = 1.134000E-02
 + aigbinv = 3.500000E-01
 + aigc = 1.030000E-02
 + aigsd = 8.450001E-03
 + alpha0 = 0.000000E+00
 + alpha1 = 3.000000E-02
 + b0 = 1.279331E-07
 + b1 = 2.124922E-06
 + beta0 = 8.700000E+00
 + bgidl = 2.300000E+09
 + bigbacc = 3.249000E-03
 + bigbinv = 3.000000E-02
 + bigc = 1.525000E-03
 + bigsd = 4.021000E-04
 + cdsc = 3.180072E-02
 + cdscb = 0.000000E+00
 + cdscd = 0.000000E+00
 + cgidl = 5.000000E-01
 + cigbacc = 1.416000E-01
 + cigbinv = 6.000000E-03
 + cigc = 0.000000E+00
 + cigsd = 1.463000E-03
 + cit = 0.000000E+00
 + delta = 7.500000E-03
 + dlcig = 2.500000E-09
 + drout = 0.000000E+00
 + dsub = 1.977011E+00
 + dvt0 = 1.390000E+01
 + dvt0w = 3.030026E+01
 + dvt1 = 3.122945E-01
 + dvt1w = 1.000000E+06
 + dvt2 = 0.000000E+00
 + dvt2w = 9.975855E-02
 + dvtp0 = 4.000000E-07
 + dvtp1 = 2.000000E+00
 + egidl = 5.300000E-01
 + eigbinv = 1.100000E+00
 + eta0 = 1.471806E+06
 + etab = 0.000000E+00
 + fprout = 2.000000E+02
 + gbmin = 1.000000E-12
 + k1 = 5.894880E-01
 + k2 = 1.324778E-02
 + k3 = -1.942463E-02
 + k3b = 2.256260E-01
 + keta = -4.889222E-02
 + ku0 = -7.360000E-08
 + kvsat = 2.000000E-01
 + kvth0 = 3.500000E-09
 + lku0 = 4.027000E-07
 + lkvth0 = -2.680000E-11
 + llodku0 = 1.000000E+00
 + llodvth = 1.000000E+00
 + lodeta0 = 1.000000E+00
 + lodk2 = 5.000000E-01
 + lpe0 = 0.000000E+00
 + lpeb = 0.000000E+00
 + minv = 1.612536E-01
 + nfactor = 9.357598E-01
 + nigbacc = 4.050000E+00
 + nigbinv = 1.000000E+00
 + nigc = 1.000000E+00
 + ntox = 1.000000E+00
 + pclm = 4.066283E-01
 + pdiblc1 = 0.000000E+00
 + pdiblc2 = 2.713455E-03
 + pdiblcb = 0.000000E+00
 + pdits = 0.000000E+00
 + pditsd = 0.000000E+00
 + pditsl = 0.000000E+00
 + phin = 0.000000E+00
 + pigcd = 2.300000E+00
 + pku0 = -2.000000E-13
 + pkvth0 = 0.000000E+00
 + poxedge = 1.000000E+00
 + prwb = -1.828926E+00
 + prwg = 7.558458E-01
 + pscbe1 = 9.264000E+08
 + pscbe2 = 1.000000E-20
 + pvag = 4.304982E-01
 + rbdb = 5.000000E+01
 + rbpb = 5.000000E+01
 + rbpd = 5.000000E+01
 + rbps = 5.000000E+01
 + rbsb = 5.000000E+01
 + rdsw = 1.400000E+02
 + sa0 = 6.300000E-07
 + sb0 = 6.300000E-07
 + steta0 = 0.000000E+00
 + stk2 = 1.350000E-09
 + toxref = 3.000000E-09
 + u0 = 3.793245E-02
 + ua = -5.168259E-10
 + ub = 2.158000E-18
 + uc = 1.256450E-10
 + voff = -1.093561E-01
 + voffl = 0.000000E+00
 + vsat = 9.515962E+04
 + vth0 = 5.015779E-01
 + w0 = -3.000000E-07
 + wku0 = 8.000000E-07
 + wkvth0 = 1.500000E-06
 + wlod = 8.000000E-07
 + wlodku0 = 1.000000E+00
 + wlodvth = 1.000000E+00
 + wr = 1.000000E+00
 + acde = 1.200000E+00
 + cf = 1.380000E-10
 + cgbo = 0.000000E+00
 + cgdl = 6.514300E-11
 + cgdo = 1.209000E-10
 + cgsl = 6.514300E-11
 + cgso = 1.209000E-10
 + ckappas = 6.000000E-01
 + clc = 1.000000E-07
 + cle = 6.000000E-01
 + moin = 1.260000E+01
 + noff = 1.686000E+00
 + voffcv = -5.472000E-02
 + xrcrg1 = 1.200000E+01
 + xrcrg2 = 1.000000E+00
 + ef = 8.841001E-01
 + em = 1.192000E+07
 + noia = 4.292600E+24
 + noib = 1.612000E+24
 + noic = 8.750000E+00
 + bvs = 1.000000E+01
 + ijthsfwd = 1.000000E-02
 + ijthsrev = 1.000000E-02
 + jss = 1.770000E-07
 + jsws = 4.230000E-13
 + njs = 1.000000E+00
 + xjbvs = 1.000000E+00
 + cjs = 9.800000E-04
 + cjswgs = 3.700000E-10
 + cjsws = 4.000000E-11
 + mjs = 2.500000E-01
 + mjswgs = 5.200000E-01
 + mjsws = 1.000000E-02
 + pbs = 5.000000E-01
 + pbswgs = 7.800000E-01
 + pbsws = 8.000000E-01
 + tnom = 2.500000E+01
 + at = 4.500000E+04
 + kt1 = -2.081000E-01
 + kt1l = 0.000000E+00
 + kt2 = -4.464000E-02
 + prt = 0.000000E+00
 + tku0 = 1.000000E-02
 + ua1 = 2.684000E-09
 + ub1 = -3.673000E-18
 + uc1 = -6.421000E-11
 + ute = -1.730000E+00
 + xtis = 3.000000E+00
 + tcj = 7.320000E-04
 + tcjsw = 3.570000E-04
 + tcjswg = 3.570000E-04
 + tpb = 1.000000E-03
 + tpbsw = 1.900000E-03
 + tpbswg = 1.900000E-03
 + la1 = 1.000000E-07
 + leta0 = 1.465969E-06
 + lk1 = -5.480147E-09
 + lk2 = 2.172426E-09
 + lketa = 1.543347E-08
 + lnfactor = 9.485661E-08
 + lprwb = 3.827951E-07
 + lprwg = 5.115370E-19
 + lu0 = -4.292943E-10
 + lua = 7.437302E-19
 + luc = 1.289193E-17
 + lvoff = 7.074818E-09
 + lvth0 = 2.769597E-08
 + pk1 = 1.894302E-14
 + pk2 = -4.860750E-15
 + pketa = -1.116151E-15
 + pprwb = -1.915244E-12
 + pu0 = 4.704286E-16
 + pua = 3.228626E-23
 + pub = 4.453220E-31
 + puc = -4.192377E-32
 + pvoff = 6.356181E-16
 + pvth0 = -4.056047E-15
 + pwr = -6.548824E-13
 + wketa = 1.004463E-08
 + wprwb = 6.947010E-06
 + wu0 = -3.543872E-09
 + wua = 8.717981E-16
 + wuc = -2.925165E-17
 + wvth0 = -8.927823E-09


.model P25 pmos
 + binunit = 2
 + diomod = 1
 + igbmod = 1
 + igcmod = 1
 + level = 54
 + mobmod = 0
 + paramchk = 1
 + permod = 1
 + rdsmod = 0
 + stimod = 1
 + version = 4.2
 + acnqsmod = 0
 + capmod = 2
 + trnqsmod = 0
 + xpart = 1
 + fnoimod = 1
 + tnoimod = 0
 + dmcg = 9.250000E-08
 + dmcgt = 0.000000E+00
 + dmci = 9.250000E-08
 + dmdg = 0.000000E+00
 + dtox = 5.250000E-10
 + dwj = 0.000000E+00
 + epsrox = 3.900000E+00
 + ngate = 8.000000E+19
 + ngcon = 1.000000E+00
 + nsd = 1.000000E+20
 + rsh = 9.680000E+00
 + rshg = 1.000000E-01
 + toxe = 5.800000E-09
 + xgl = 0.000000E+00
 + xgw = 0.000000E+00
 + xj = 1.800000E-07
 + xl = -3.500000E-08
 + xw = 1.500000E-08
 + dwb = -2.560166E-08
 + dwg = -4.522679E-08
 + lint = -2.527241E-08
 + ll = 0.000000E+00
 + lln = 1.000000E+00
 + lw = 0.000000E+00
 + lwl = 0.000000E+00
 + lwn = 1.000000E+00
 + wint = 1.801229E-10
 + wl = 0.000000E+00
 + wln = 1.000000E+00
 + ww = 0.000000E+00
 + wwl = 0.000000E+00
 + wwn = 1.000000E+00
 + dlc = 1.525000E-08
 + dwc = 0.000000E+00
 + llc = 0.000000E+00
 + lwc = 0.000000E+00
 + lwlc = 0.000000E+00
 + wlc = 0.000000E+00
 + wwc = 0.000000E+00
 + wwlc = 0.000000E+00
 + a0 = 2.406530E+00
 + a1 = 0.000000E+00
 + a2 = 1.000000E+00
 + agidl = 9.000000E-08
 + ags = -6.883790E-03
 + aigbacc = 1.069000E-02
 + aigbinv = 3.500000E-01
 + aigc = 6.060000E-03
 + aigsd = 4.590000E-03
 + alpha0 = 0.000000E+00
 + alpha1 = 6.000000E-02
 + b0 = -5.549142E-42
 + b1 = 0.000000E+00
 + beta0 = 1.200000E+01
 + bgidl = 2.300000E+09
 + bigbacc = 3.132000E-03
 + bigbinv = 3.000000E-02
 + bigc = 7.625000E-04
 + bigsd = 0.000000E+00
 + cdsc = 0.000000E+00
 + cdscb = 0.000000E+00
 + cdscd = 0.000000E+00
 + cgidl = 5.000000E-01
 + cigbacc = 1.498000E-01
 + cigbinv = 6.000000E-03
 + cigc = 1.000000E-10
 + cigsd = 2.267000E-03
 + cit = -1.318182E-04
 + delta = 2.000000E-02
 + dlcig = 2.500000E-09
 + drout = 5.000000E-02
 + dsub = 5.000000E-01
 + dvt0 = 2.811061E+02
 + dvt0w = 3.976395E-39
 + dvt1 = 9.174230E-01
 + dvt1w = 0.000000E+00
 + dvt2 = 3.131133E-02
 + dvt2w = 0.000000E+00
 + dvtp0 = 0.000000E+00
 + dvtp1 = 0.000000E+00
 + egidl = 5.300000E-01
 + eigbinv = 1.100000E+00
 + eta0 = 8.500000E-02
 + etab = -1.007055E-14
 + fprout = 1.000000E+03
 + gbmin = 1.000000E-12
 + k1 = 7.919954E-01
 + k2 = 9.468992E-03
 + k3 = -8.584188E+01
 + k3b = 1.298105E+00
 + keta = 2.340033E-03
 + ku0 = 1.324900E-07
 + kvsat = -9.000000E-01
 + kvth0 = -1.500000E-09
 + lku0 = 1.330000E-07
 + lkvth0 = -1.680000E-15
 + llodku0 = 1.000000E+00
 + llodvth = 2.000000E+00
 + lodeta0 = 1.000000E+00
 + lodk2 = 2.000000E+00
 + lpe0 = 9.001915E-07
 + lpeb = 1.000000E-07
 + minv = 6.681700E-01
 + nfactor = 1.624679E+00
 + nigbacc = 4.049000E+00
 + nigbinv = 1.000000E+00
 + nigc = 1.000000E+00
 + ntox = 1.000000E+00
 + pclm = 9.454546E-02
 + pdiblc1 = 0.000000E+00
 + pdiblc2 = 5.000000E-03
 + pdiblcb = 0.000000E+00
 + pdits = 0.000000E+00
 + pditsd = 0.000000E+00
 + pditsl = 0.000000E+00
 + phin = 0.000000E+00
 + pigcd = 2.300000E+00
 + pku0 = 0.000000E+00
 + pkvth0 = 0.000000E+00
 + poxedge = 1.000000E+00
 + prwb = 3.635987E-14
 + prwg = 0.000000E+00
 + pscbe1 = 9.264000E+08
 + pscbe2 = 1.000000E-20
 + pvag = 0.000000E+00
 + rbdb = 5.000000E+01
 + rbpb = 5.000000E+01
 + rbpd = 5.000000E+01
 + rbps = 5.000000E+01
 + rbsb = 5.000000E+01
 + rdsw = 1.600000E+02
 + rdswmin = 0.000000E+00
 + sa0 = 6.300000E-07
 + sb0 = 6.300000E-07
 + steta0 = 0.000000E+00
 + stk2 = 4.000000E-10
 + toxref = 3.000000E-09
 + u0 = 7.668779E-03
 + ua = -4.984901E-10
 + ub = 2.013546E-18
 + uc = 6.884129E-11
 + voff = -1.323172E-01
 + voffl = 0.000000E+00
 + vsat = 4.547204E+04
 + vth0 = -5.333223E-01
 + w0 = -9.859620E-09
 + wku0 = 6.500000E-07
 + wkvth0 = 5.000000E-07
 + wlod = 8.000000E-07
 + wlodku0 = 1.000000E+00
 + wlodvth = 1.000000E+00
 + wr = 5.403416E+00
 + acde = 1.200000E+00
 + cf = 1.690000E-10
 + cgbo = 0.000000E+00
 + cgdl = 1.895700E-10
 + cgdo = 2.568000E-11
 + cgsl = 1.895700E-10
 + cgso = 2.568000E-11
 + ckappas = 6.000000E-01
 + clc = 1.000000E-07
 + cle = 6.000000E-01
 + moin = 1.109000E+01
 + noff = 2.175000E+00
 + voffcv = -3.885000E-02
 + xrcrg1 = 1.200000E+01
 + xrcrg2 = 1.000000E+00
 + ef = 1.190000E+00
 + em = 1.500000E+08
 + noia = 1.635000E+24
 + noib = 7.241000E+26
 + noic = 8.750000E+00
 + bvs = 1.000000E+01
 + ijthsfwd = 1.000000E-02
 + ijthsrev = 1.000000E-02
 + jss = 1.245000E-07
 + jsws = 3.770000E-13
 + njs = 1.000000E+00
 + xjbvs = 1.000000E+00
 + cjs = 1.140000E-03
 + cjswgs = 3.600000E-10
 + cjsws = 6.000000E-11
 + mjs = 3.600000E-01
 + mjswgs = 9.899999E-01
 + mjsws = 1.000000E-02
 + pbs = 8.000000E-01
 + pbswgs = 1.000000E+00
 + pbsws = 8.000000E-01
 + tnom = 2.500000E+01
 + at = 2.800000E+05
 + kt1 = -2.898000E-01
 + kt1l = 0.000000E+00
 + kt2 = -2.958000E-02
 + prt = 0.000000E+00
 + tku0 = 1.000000E-01
 + ua1 = 4.214773E-09
 + ub1 = -8.025218E-18
 + uc1 = -6.421000E-11
 + ute = -1.197546E+00
 + xtis = 3.000000E+00
 + tcj = 8.540000E-04
 + tcjsw = 3.570000E-04
 + tcjswg = 3.120000E-03
 + tpb = 1.900000E-03
 + tpbsw = 1.900000E-03
 + tpbswg = 1.900000E-03
 + lmax = 1
 + wmax = 1
 + lags = 8.468265E-07
 + lcit = 1.312909E-09
 + letab = -1.847540E-08
 + lk1 = 2.100281E-08
 + lk2 = -2.741676E-08
 + lketa = -6.048970E-08
 + lpclm = 1.050327E-06
 + lprwb = -9.137446E-06
 + lu0 = 3.454338E-09
 + lua = 6.788852E-16
 + lub = -1.050327E-25
 + luc = 4.738957E-17
 + lvoff = 6.734907E-09
 + lvth0 = 2.707419E-07
 + pk1 = 1.848466E-15
 + pk2 = -7.981986E-16
 + pnfactor = -1.091426E-13
 + pprwb = -7.461580E-27
 + pu0 = 3.106971E-16
 + pua = 3.090730E-22
 + pub = 3.505538E-31
 + puc = 5.311185E-23
 + pvoff = 5.293384E-15
 + pvsat = -3.392022E-09
 + pvth0 = -2.380528E-15
 + pwr = -1.132021E-12
 + wprwb = 2.698696E-05
 + wu0 = 1.315202E-09
 + wua = 1.251084E-15
 + wuc = 5.284518E-17
 + wvth0 = -4.204960E-07

 
**********************  BJTs     ****************************

.MODEL LPNP PNP  
+ SUBS = -1
+ LEVEL = 1
+ ISS= 0. XTF= 1. NS = 1.00000
+ CJS= 0. VJS= 0.50000 PTF= 0.
+ MJS= 0. EG = 1.10000 AF = 1.
+ ITF= 0.50000 VTF= 1.00000
+ BR = 40.00000 IS = 1.6339e-14 VAF=103.40529
+ VAR= 17.77498 IKF= 1.00000
+ NE = 1.31919 IKR= 1.00000 ISC= 3.6856e-13
+ NC = 1.10024 IRB= 4.3646e-05 NF = 1.00531
+ NR = 1.00688 RBM= 1.0000e-02 RB = 71.82988
+ RC = 0.42753 RE = 3.0503e-03 MJE= 0.32339
+ MJC= 0.34700 VJE= 0.67373 VJC= 0.47372
+ TF = 9.693e-10 TR =380.00e-9 CJE= 2.6734e-11
+ CJC= 1.4040e-11 FC = 0.95000 XCJC= 0.94518


.MODEL LNPN NPN
+ SUBS=-1
+ LEVEL=1
+ BF=1.292755e+02 BR=8.379600e+00
+ IS=8.753000e-18 NF=9.710631e-01 NR=9.643484E-01
+ ISE=3.428000e-16 ISC=1.855000e-17 ISS=0.000000e+00
+ NE=2.000000e+00 NC=9.460594e-01 NS=1.000000e+00
+ VAF=4.942130e+01 VAR=4.589800e+00
+ IKF=5.763400e-03 IKR=5.000000e-03 IRB=8.002451e-07
+ RC=1.216835e+02 RB=1.786930e+04 RBM=8.123460e+01 RE=2.136400e+00
+ CJE=9.894950e-14 MJE=4.567345e-01 VJE=1.090217e+00
+ CJC=5.248670e-14 MJC=1.318637e-01 VJC=5.184017e-01 XCJC=6.720303e-01
+ CJS=9.671580e-14 MJS=2.395731e-01 VJS=5.000000e-01
+ TF=3.319200e-11 ITF=1.457110e-02 XTF=2.778660e+01 
+ VTF=1.157900e+00 PTF=6.000000e-05
+ XTI=4.460500e+00 XTB=1.456600e+00 EG=1.153300e+00
+ TIKF1=-5.397800e-03 TIRB1=-1.071400e-03
+ TRE1=-1.121900e-02 TRB1=3.039900e-03 
+ TRC1=-4.020700e-03 TRM1=0.000000e+00

.MODEL LPNP25V PNP  
+ SUBS = -1
+ LEVEL = 1
+ ISS= 0. XTF= 1. NS = 1.00000
+ CJS= 0. VJS= 0.50000 PTF= 0.
+ MJS= 0. EG = 1.10000 AF = 1.
+ ITF= 0.50000 VTF= 1.00000
+ BR = 40.00000 IS = 1.6339e-14 VAF=103.40529
+ VAR= 17.77498 IKF= 1.00000
+ NE = 1.31919 IKR= 1.00000 ISC= 3.6856e-13
+ NC = 1.10024 IRB= 4.3646e-05 NF = 1.00531
+ NR = 1.00688 RBM= 1.0000e-02 RB = 71.82988
+ RC = 0.42753 RE = 3.0503e-03 MJE= 0.32339
+ MJC= 0.34700 VJE= 0.67373 VJC= 0.47372
+ TF = 9.693e-10 TR =380.00e-9 CJE= 2.6734e-11
+ CJC= 1.4040e-11 FC = 0.95000 XCJC= 0.94518

.MODEL LNPN25V NPN  
+ SUBS=-1
+ LEVEL=1
+ BF=1.292755e+02 BR=8.379600e+00
+ IS=8.753000e-18 NF=9.710631e-01 NR=9.643484E-01
+ ISE=3.428000e-16 ISC=1.855000e-17 ISS=0.000000e+00
+ NE=2.000000e+00 NC=9.460594e-01 NS=1.000000e+00
+ VAF=4.942130e+01 VAR=4.589800e+00
+ IKF=5.763400e-03 IKR=5.000000e-03 IRB=8.002451e-07
+ RC=1.216835e+02 RB=1.786930e+04 RBM=8.123460e+01 RE=2.136400e+00
+ CJE=9.894950e-14 MJE=4.567345e-01 VJE=1.090217e+00
+ CJC=5.248670e-14 MJC=1.318637e-01 VJC=5.184017e-01 XCJC=6.720303e-01
+ CJS=9.671580e-14 MJS=2.395731e-01 VJS=5.000000e-01
+ TF=3.319200e-11 ITF=1.457110e-02 XTF=2.778660e+01 
+ VTF=1.157900e+00 PTF=6.000000e-05
+ XTI=4.460500e+00 XTB=1.456600e+00 EG=1.153300e+00
+ TIKF1=-5.397800e-03 TIRB1=-1.071400e-03
+ TRE1=-1.121900e-02 TRB1=3.039900e-03 
+ TRC1=-4.020700e-03 TRM1=0.000000e+00

.MODEL VPNP PNP  
+ SUBS = 1
+ LEVEL = 1
+ ISS= 0. XTF= 1. NS = 1.00000
+ CJS= 0. VJS= 0.50000 PTF= 0.
+ MJS= 0. EG = 1.10000 AF = 1.
+ ITF= 0.50000 VTF= 1.00000
+ BR = 40.00000 IS = 1.6339e-14 VAF=103.40529
+ VAR= 17.77498 IKF= 1.00000
+ NE = 1.31919 IKR= 1.00000 ISC= 3.6856e-13
+ NC = 1.10024 IRB= 4.3646e-05 NF = 1.00531
+ NR = 1.00688 RBM= 1.0000e-02 RB = 71.82988
+ RC = 0.42753 RE = 3.0503e-03 MJE= 0.32339
+ MJC= 0.34700 VJE= 0.67373 VJC= 0.47372
+ TF = 9.693e-10 TR =380.00e-9 CJE= 2.6734e-11
+ CJC= 1.4040e-11 FC = 0.95000 XCJC= 0.94518

.MODEL VNPN NPN
+ SUBS=1
+ LEVEL=1
+ BF=1.292755e+02 BR=8.379600e+00
+ IS=8.753000e-18 NF=9.710631e-01 NR=9.643484E-01
+ ISE=3.428000e-16 ISC=1.855000e-17 ISS=0.000000e+00
+ NE=2.000000e+00 NC=9.460594e-01 NS=1.000000e+00
+ VAF=4.942130e+01 VAR=4.589800e+00
+ IKF=5.763400e-03 IKR=5.000000e-03 IRB=8.002451e-07
+ RC=1.216835e+02 RB=1.786930e+04 RBM=8.123460e+01 RE=2.136400e+00
+ CJE=9.894950e-14 MJE=4.567345e-01 VJE=1.090217e+00
+ CJC=5.248670e-14 MJC=1.318637e-01 VJC=5.184017e-01 XCJC=6.720303e-01
+ CJS=9.671580e-14 MJS=2.395731e-01 VJS=5.000000e-01
+ TF=3.319200e-11 ITF=1.457110e-02 XTF=2.778660e+01 
+ VTF=1.157900e+00 PTF=6.000000e-05
+ XTI=4.460500e+00 XTB=1.456600e+00 EG=1.153300e+00
+ TIKF1=-5.397800e-03 TIRB1=-1.071400e-03
+ TRE1=-1.121900e-02 TRB1=3.039900e-03 
+ TRC1=-4.020700e-03 TRM1=0.000000e+00

.MODEL VPNP25V PNP  
+ SUBS = 1
+ LEVEL = 1
+ ISS= 0. XTF= 1. NS = 1.00000
+ CJS= 0. VJS= 0.50000 PTF= 0.
+ MJS= 0. EG = 1.10000 AF = 1.
+ ITF= 0.50000 VTF= 1.00000
+ BR = 40.00000 IS = 1.6339e-14 VAF=103.40529
+ VAR= 17.77498 IKF= 1.00000
+ NE = 1.31919 IKR= 1.00000 ISC= 3.6856e-13
+ NC = 1.10024 IRB= 4.3646e-05 NF = 1.00531
+ NR = 1.00688 RBM= 1.0000e-02 RB = 71.82988
+ RC = 0.42753 RE = 3.0503e-03 MJE= 0.32339
+ MJC= 0.34700 VJE= 0.67373 VJC= 0.47372
+ TF = 9.693e-10 TR =380.00e-9 CJE= 2.6734e-11
+ CJC= 1.4040e-11 FC = 0.95000 XCJC= 0.94518

.MODEL VNPN25V NPN
+ SUBS=1
+ LEVEL=1
+ BF=1.292755e+02 BR=8.379600e+00
+ IS=8.753000e-18 NF=9.710631e-01 NR=9.643484E-01
+ ISE=3.428000e-16 ISC=1.855000e-17 ISS=0.000000e+00
+ NE=2.000000e+00 NC=9.460594e-01 NS=1.000000e+00
+ VAF=4.942130e+01 VAR=4.589800e+00
+ IKF=5.763400e-03 IKR=5.000000e-03 IRB=8.002451e-07
+ RC=1.216835e+02 RB=1.786930e+04 RBM=8.123460e+01 RE=2.136400e+00
+ CJE=9.894950e-14 MJE=4.567345e-01 VJE=1.090217e+00
+ CJC=5.248670e-14 MJC=1.318637e-01 VJC=5.184017e-01 XCJC=6.720303e-01
+ CJS=9.671580e-14 MJS=2.395731e-01 VJS=5.000000e-01
+ TF=3.319200e-11 ITF=1.457110e-02 XTF=2.778660e+01 
+ VTF=1.157900e+00 PTF=6.000000e-05
+ XTI=4.460500e+00 XTB=1.456600e+00 EG=1.153300e+00
+ TIKF1=-5.397800e-03 TIRB1=-1.071400e-03
+ TRE1=-1.121900e-02 TRB1=3.039900e-03 
+ TRC1=-4.020700e-03 TRM1=0.000000e+00

.MODEL DNWPNP PNP
+ SUBS = 1
+ LEVEL = 1
+ ISS= 0. XTF= 1. NS = 1.00000
+ CJS= 0. VJS= 0.50000 PTF= 0.
+ MJS= 0. EG = 1.10000 AF = 1.
+ ITF= 0.50000 VTF= 1.00000
+ BR = 40.00000 IS = 1.6339e-14 VAF=103.40529
+ VAR= 17.77498 IKF= 1.00000
+ NE = 1.31919 IKR= 1.00000 ISC= 3.6856e-13
+ NC = 1.10024 IRB= 4.3646e-05 NF = 1.00531
+ NR = 1.00688 RBM= 1.0000e-02 RB = 71.82988
+ RC = 0.42753 RE = 3.0503e-03 MJE= 0.32339
+ MJC= 0.34700 VJE= 0.67373 VJC= 0.47372
+ TF = 9.693e-10 TR =380.00e-9 CJE= 2.6734e-11
+ CJC= 1.4040e-11 FC = 0.95000 XCJC= 0.94518
